.SUBCKT PMTR2K 1 2 3
R1 1 2 1000
R2 2 3 1000
.ENDS