.SUBCKT PMTR50K 1 2 3
R1 1 2 25000
R2 2 3 25000
.ENDS